VERS 210000 0 123 0 0
MODE SEQ
NAME AC254_050_C
UNIT MM X W X CM MR CPMM
ENPD 12.00000000
ENVD 2.0e+01 1 0
GFAC 0 0
GCAT SCHOTT MISC
RAIM 0 0 1 1 0 0 0 0 0
PUSH 0 0 0 0 0 0
SDMA 0 1 0
FTYP 0 0 1 1 0 0 0
ROPD 2
PICB 1
XFLN 0
YFLN 0
FWGN 1
VDXN 0
VDYN 0
VCXN 0
VCYN 0
VANN 0
WAVM 1 1.310000 1.0
PWAV 1
SURF 0
  TYPE STANDARD
  CURV 0 0 0 0 0 ""
  DISZ INFINITY
  DIAM 6.000000 0 0 0 1 ""
SURF 1
  TYPE STANDARD
  STOP
  CURV 0.0300300300 0 0 0 0 ""
  DISZ 9.00000000
  GLAS N-BAF10 0 0 1.5 50.0 0 0 0 0 0 0
  DIAM 6.000000 0 0 0 1 ""
SURF 2
  TYPE STANDARD
  CURV -0.0414937759 0 0 0 0 ""
  DISZ 3.00000000
  GLAS N-SF6HT 0 0 1.5 50.0 0 0 0 0 0 0
  DIAM 6.000000 0 0 0 1 ""
SURF 3
  TYPE STANDARD
  CURV -0.0104931794 0 0 0 0 ""
  DISZ 45.10894943
  DIAM 6.000000 0 0 0 1 ""
SURF 4
  TYPE STANDARD
  CURV 0 0 0 0 0 ""
  DISZ 0.0
  DIAM 6.000000 0 0 0 1 ""
BLNK 
