VERS 210000 0 123 0 0
MODE SEQ
NAME fnum_sweep_f2_R20
UNIT MM X W X CM MR CPMM
ENPD 8.00000000
ENVD 2.0e+01 1 0
GFAC 0 0
GCAT SCHOTT MISC
RAIM 0 0 1 1 0 0 0 0 0
PUSH 0 0 0 0 0 0
SDMA 0 1 0
FTYP 0 0 1 1 0 0 0
ROPD 2
PICB 1
XFLN 0
YFLN 0
FWGN 1
VDXN 0
VDYN 0
VCXN 0
VCYN 0
VANN 0
WAVM 1 1.310000 1.0
PWAV 1
SURF 0
  TYPE STANDARD
  CURV 0 0 0 0 0 ""
  DISZ INFINITY
  DIAM 4.000000 0 0 0 1 ""
SURF 1
  TYPE STANDARD
  STOP
  CURV 0.0500000000 0 0 0 0 ""
  DISZ 3.00000000
  GLAS N-BK7 0 0 1.5 50.0 0 0 0 0 0 0
  DIAM 4.000000 0 0 0 1 ""
SURF 2
  TYPE STANDARD
  CURV 0.0000000000 0 0 0 0 ""
  DISZ 39.71540691
  DIAM 4.000000 0 0 0 1 ""
SURF 3
  TYPE STANDARD
  CURV 0 0 0 0 0 ""
  DISZ 0.0
  DIAM 4.000000 0 0 0 1 ""
BLNK 
